LAMMPS (19 May 2017)
variable Text equal 300.0
variable Nrun0 equal 1000
variable sigma equal 3.13
variable tau equal 1703.41 # fs
variable dt equal 0.005*1703.41
variable Tdamp equal 50.0*8.51705

units real
atom_style atomic
boundary p p p
# processors 2 2 4
# processors 4 4 32
processors * * *

region simulation_space block 0.0 201.5 0.0 201.5 0.0 161.2 units box
create_box 8 simulation_space
Created orthogonal box = (0 0 0) to (201.5 201.5 161.2)

read_data samples/replicated_mos2_final.xyz add merge
  orthogonal box = (-0.5 -0.5 -0.5) to (201.5 201.5 161.2)
  reading atoms ...
  9600 atoms

# mass 1 18.0

neighbor 2.0 bin
neigh_modify delay 0 every 1 check yes

variable cutoff equal 2.5*3.13
pair_style hybrid/overlay lj/cut 7.825 sw
# pair_modify tail yes
pair_coeff * * lj/cut 0.0 0.0
# for SW potentials
# set coefficients for interactions within a layer
pair_coeff * * sw mos2_long.sw S1 S2 S3 S4 Mo1 Mo2 Mo3 Mo4

# for LJ potentials
variable epsilon_lj equal 0.00693
pair_coeff 1 2 lj/cut 0.00693 3.13
pair_coeff 2 3 lj/cut 0.00693 3.13
pair_coeff 3 4 lj/cut 0.00693 3.13
pair_coeff 1 4 lj/cut 0.00693 3.13

thermo_style custom step temp ke etotal press
thermo_modify flush yes
thermo 10

min_style cg
minimize 1.0e-8 1.0e-8 1000 1000
  update every 1 steps, delay 0 steps, check yes
Step Temp KinEng TotEng Press
0            0            0   -22259.488    298.03054
Loop time of 55.0186 on 1 procs for 560 steps with 9600 atoms

Minimization stats:
  Stopping criterion = max force evaluations
  Energy initial, next-to-last, final =
  Force two-norm initial, final = 299.535 1.69788
  Force max component initial, final = 4.21156 0.513983
  Final line search alpha, max atom move = 0.310927 0.159811
  Iterations, force evaluations = 560 1000

reset_timestep 0
dump 1 all atom 10 relax.lammpstrj

fix nvt all nvt temp 300 300 425.8525
timestep 8.51705
run 1000
Step Temp KinEng TotEng Press
0            0            0   -28164.715   -0.2514329
Averages over the last 51 of 101 rows, steps 500 to 1000:
Temp KinEng TotEng Press
35.2353 1008.18 -27063.2 6.12234
Loop time of 48.1042 on 1 procs for 1000 steps with 9600 atoms

unfix nvt

fix nve all nve
run 1000
Step Temp KinEng TotEng Press
1000    149.57937    4279.8839   -23492.381      25.7591
Averages over the last 51 of 101 rows, steps 1500 to 2000:
Temp KinEng TotEng Press
144.118 4123.62 -23490.8 23.2154
Loop time of 41.1047 on 1 procs for 1000 steps with 9600 atoms

unfix nve
undump 1

write_restart restart.equil
