##CIF_1.1

data_sm_global
#Used dictionaries
loop_
_audit_conform_dict_name
_audit_conform_dict_version
_audit_conform_dict_location
cif_core.dic 	2.4.2 	.
cif_pd.dic 		1.0.1 	.
cif_sm.dic 		0.1 	'redaktion.landolt-boernstein(at)springer.com'

#About this content and reference
_sm_credits_copyright
;PAULING FILE Multinaries Edition - 2012. SpringerMaterials Release 2014.
http://www.paulingfile.com
Unique LPF ID Number SD532311
Project Coordinator: Shuichi Iwata
Section-Editors: Karin Cenzual (Crystal Structures), Hiroaki Okamoto (Phase 
Diagrams), Fritz Hulliger (Physical Properties)
(c) Springer & Material Phases Data System (MPDS), Switzerland & National 
Institute for Materials Science (NIMS), Japan 2014.
(Data generated pre-2002: (c) Springer & MPDS & NIMS; 
post-2001: (c) Springer & MPDS)
All Rights Reserved. Version 2014.06.
;

_audit_creation_method
;This data have been compiled from the crystallographic datasheet for 
"WSe2 Crystal Structure" 
taken from SpringerMaterials (sm_isp_sd_0532311).
;

_publ_section_references
;Agarwal M.K., Wani P.A.: <i>Growth conditions and crystal structure parameters of layer compounds in the series Mo<sub>1&#x2212;x</sub>W<sub>x</sub>Se<sub>2</sub></i>. Materials Research Bulletin <b>14</b> (1979) 825-830.
;

#Phase classification
_sm_phase_labels				'WSe2'
_chemical_name_mineral			''
_sm_chemical_compound_class		'selenide'
_sm_phase_prototype				'MoS2 '
_sm_pearson_symbol				'hP6'
_symmetry_Int_Tables_number		194
_sm_sample_details
;sample prepared from Se, W, 
electron microprobe analysis; composition confirmed, 
powder (determination of cell parameters)
;
_sm_measurement_details
;film (determination of cell parameters), 
X-rays (determination of cell parameters)
;
_sm_interpretation_details
;cell parameters determined and structure type assigned
;

data_sm_isp_SD532311-standardized_unitcell
#Cell Parameters
_cell_length_a					3.297
_cell_length_b					3.297
_cell_length_c					12.982
_cell_angle_alpha				90
_cell_angle_beta				90
_cell_angle_gamma				120
_sm_length_ratio_ab				1.000
_sm_length_ratio_bc				0.254
_sm_length_ratio_ca				3.938
_cell_volume 					122.21
_symmetry_space_group_name_H-M	'P63/mmc'
_symmetry_Int_Tables_number		194
_cell_formula_units_Z			2
_sm_cell_transformation
;No transformation from published to standardized cell parameters necessary.
;

#Atom Coordinates
loop_
_atom_site_label
_atom_site_type_symbol
_atom_site_Wyckoff_symbol
_sm_site_symmetry
_atom_site_fract_x
_atom_site_fract_y
_atom_site_fract_z
_atom_site_occupancy
_sm_coordination_number
_sm_atomic_environment_type
Se1 'Se' .4f .3m. 0.333333333333333 0.666666666666667 0.625 1 ? '?'
W1 'W' .2c .-6m2 0.333333333333333 0.666666666666667 0.25 1 ? '?'

_sm_atom_site_transformation
;No transformation from published to standardized cell parameters necessary.
Atom coordinates assigned by editor.
;

data_sm_isp_SD532311-published_cell
#Cell Parameters
_cell_length_a					3.297(2)
_cell_length_b					3.297(2)
_cell_length_c					12.982(2)
_cell_angle_alpha				90
_cell_angle_beta				90
_cell_angle_gamma				120
_sm_length_ratio_ab				1.000
_sm_length_ratio_bc				0.254
_sm_length_ratio_ca				3.938
_cell_volume 					122.21
_symmetry_space_group_name_H-M	'P63/mmc'
_symmetry_Int_Tables_number		194
_cell_formula_units_Z			2

#Atom Coordinates
loop_
_atom_site_label
_atom_site_type_symbol
_atom_site_Wyckoff_symbol
_sm_site_symmetry
_atom_site_fract_x
_atom_site_fract_y
_atom_site_fract_z
_atom_site_occupancy
_sm_coordination_number
_sm_atomic_environment_type
? ? ? ? ? ? ? ? ? ?

data_sm_isp_SD532311-niggli_reduced_cell
#Cell Parameters
_cell_length_a					3.297
_cell_length_b					3.297
_cell_length_c					12.982
_cell_angle_alpha				90
_cell_angle_beta				90
_cell_angle_gamma				120
_sm_length_ratio_ab				1.000
_sm_length_ratio_bc				0.254
_sm_length_ratio_ca				3.938
_cell_volume 					122.21
_symmetry_space_group_name_H-M	''
_symmetry_Int_Tables_number		?
_cell_formula_units_Z			2

#Atom Coordinates
loop_
_atom_site_label
_atom_site_type_symbol
_atom_site_Wyckoff_symbol
_sm_site_symmetry
_atom_site_fract_x
_atom_site_fract_y
_atom_site_fract_z
_atom_site_occupancy
_sm_coordination_number
_sm_atomic_environment_type
? ? ? ? ? ? ? ? ? ?

